<?xml version='1.0' encoding='UTF-8'?>
<routes xmlns:xsi="http://www.w3.org/2001/XMLSchema-instance" xsi:noNamespaceSchemaLocation="http://sumo.dlr.de/xsd/routes_file.xsd">
<vType id="Motorcycle" vClass="motorcycle"/>
<vType id="Car" vClass="passenger"/>
<vType id="Truck" vClass="truck"/>
<vType id="Van" vClass="passenger"/>
	<trip id="Car5" type="Car" depart="30" departLane="best" departSpeed="max" color="250,146,171" from="5_0" to="3_1"/>
	<trip id="Motorcycle0" type="Motorcycle" depart="66" departLane="best" departSpeed="max" color="36,105,253" from="9_0" to="3_1"/>
	<trip id="Car1" type="Car" depart="68" departLane="best" departSpeed="max" color="225,233,33" from="1_0" to="7_1"/>
	<trip id="Van11" type="Van" depart="71" departLane="best" departSpeed="max" color="149,32,152" from="1_0" to="8_1"/>
	<trip id="Car2" type="Car" depart="74" departLane="best" departSpeed="max" color="125,85,144" from="8_0" to="7_1"/>
	<trip id="Car4" type="Car" depart="96" departLane="best" departSpeed="max" color="145,34,174" from="1_0" to="4_1"/>
	<trip id="Car8" type="Car" depart="98" departLane="best" departSpeed="max" color="225,116,134" from="1_0" to="3_1"/>
	<trip id="Car6" type="Car" depart="99" departLane="best" departSpeed="max" color="225,30,244" from="5_0" to="9_1"/>
	<trip id="Car9" type="Car" depart="118" departLane="best" departSpeed="max" color="200,203,113" from="6_0" to="7_1"/>
	<trip id="Car7" type="Car" depart="125" departLane="best" departSpeed="max" color="197,206,254" from="5_0" to="3_1"/>
	<trip id="Van10" type="Van" depart="284" departLane="best" departSpeed="max" color="67,227,121" from="1_0" to="8_1"/>
	<trip id="Car3" type="Car" depart="299" departLane="best" departSpeed="max" color="82,119,198" from="8_0" to="7_1"/>
	<trip id="Car20" type="Car" depart="309" departLane="best" departSpeed="max" color="137,237,207" from="5_0" to="3_1"/>
	<trip id="Car18" type="Car" depart="337" departLane="best" departSpeed="max" color="52,234,5" from="1_0" to="7_1"/>
	<trip id="Truck30" type="Truck" depart="354" departLane="best" departSpeed="max" color="176,187,170" from="1_0" to="8_1"/>
	<trip id="Motorcycle16" type="Motorcycle" depart="355" departLane="best" departSpeed="max" color="205,13,149" from="9_0" to="3_1"/>
	<trip id="Car21" type="Car" depart="357" departLane="best" departSpeed="max" color="99,228,9" from="5_0" to="3_1"/>
	<trip id="Motorcycle13" type="Motorcycle" depart="363" departLane="best" departSpeed="max" color="163,119,243" from="8_0" to="7_1"/>
	<trip id="Van25" type="Van" depart="397" departLane="best" departSpeed="max" color="101,213,69" from="1_0" to="8_1"/>
	<trip id="Truck29" type="Truck" depart="433" departLane="best" departSpeed="max" color="122,119,94" from="1_0" to="7_1"/>
	<trip id="Car23" type="Car" depart="452" departLane="best" departSpeed="max" color="180,122,175" from="9_0" to="3_1"/>
	<trip id="Motorcycle14" type="Motorcycle" depart="453" departLane="best" departSpeed="max" color="88,20,101" from="8_0" to="7_1"/>
	<trip id="Motorcycle12" type="Motorcycle" depart="455" departLane="best" departSpeed="max" color="183,97,138" from="1_0" to="7_1"/>
	<trip id="Car22" type="Car" depart="476" departLane="best" departSpeed="max" color="118,18,115" from="5_0" to="3_1"/>
	<trip id="Van28" type="Van" depart="480" departLane="best" departSpeed="max" color="90,154,221" from="2_0" to="3_1"/>
	<trip id="Car19" type="Car" depart="486" departLane="best" departSpeed="max" color="114,241,41" from="1_0" to="4_1"/>
	<trip id="Van26" type="Van" depart="494" departLane="best" departSpeed="max" color="35,233,222" from="1_0" to="7_1"/>
	<trip id="Van27" type="Van" depart="510" departLane="best" departSpeed="max" color="90,71,79" from="1_0" to="7_1"/>
	<trip id="Motorcycle15" type="Motorcycle" depart="547" departLane="best" departSpeed="max" color="60,4,222" from="9_0" to="3_1"/>
	<trip id="Car24" type="Car" depart="562" departLane="best" departSpeed="max" color="201,89,156" from="6_0" to="7_1"/>
	<trip id="Car17" type="Car" depart="574" departLane="best" departSpeed="max" color="237,215,239" from="1_0" to="7_1"/>
	<trip id="Car36" type="Car" depart="616" departLane="best" departSpeed="max" color="225,23,164" from="2_0" to="7_1"/>
	<trip id="Car42" type="Car" depart="639" departLane="best" departSpeed="max" color="102,68,167" from="5_0" to="3_1"/>
	<trip id="Car38" type="Car" depart="678" departLane="best" departSpeed="max" color="38,24,67" from="1_0" to="4_1"/>
	<trip id="Car34" type="Car" depart="678" departLane="best" departSpeed="max" color="85,5,107" from="1_0" to="7_1"/>
	<trip id="Car39" type="Car" depart="691" departLane="best" departSpeed="max" color="99,18,118" from="5_0" to="3_1"/>
	<trip id="Car45" type="Car" depart="700" departLane="best" departSpeed="max" color="234,175,127" from="1_0" to="3_1"/>
	<trip id="Car33" type="Car" depart="700" departLane="best" departSpeed="max" color="45,120,59" from="1_0" to="7_1"/>
	<trip id="Motorcycle32" type="Motorcycle" depart="708" departLane="best" departSpeed="max" color="211,47,209" from="2_0" to="3_1"/>
	<trip id="Car37" type="Car" depart="717" departLane="best" departSpeed="max" color="177,224,185" from="1_0" to="7_1"/>
	<trip id="Motorcycle31" type="Motorcycle" depart="743" departLane="best" departSpeed="max" color="91,58,28" from="9_0" to="2_1"/>
	<trip id="Car44" type="Car" depart="785" departLane="best" departSpeed="max" color="72,160,20" from="1_0" to="3_1"/>
	<trip id="Car43" type="Car" depart="791" departLane="best" departSpeed="max" color="103,188,210" from="1_0" to="3_1"/>
	<trip id="Truck47" type="Truck" depart="817" departLane="best" departSpeed="max" color="222,142,17" from="1_0" to="7_1"/>
	<trip id="Car40" type="Car" depart="825" departLane="best" departSpeed="max" color="120,254,49" from="5_0" to="3_1"/>
	<trip id="Car35" type="Car" depart="825" departLane="best" departSpeed="max" color="7,127,230" from="1_0" to="7_1"/>
	<trip id="Car41" type="Car" depart="853" departLane="best" departSpeed="max" color="132,151,210" from="5_0" to="3_1"/>
	<trip id="Van46" type="Van" depart="891" departLane="best" departSpeed="max" color="165,205,121" from="8_0" to="7_1"/>
	<trip id="Motorcycle48" type="Motorcycle" depart="912" departLane="best" departSpeed="max" color="87,139,5" from="8_0" to="7_1"/>
	<trip id="Car51" type="Car" depart="957" departLane="best" departSpeed="max" color="177,112,253" from="1_0" to="4_1"/>
	<trip id="Motorcycle50" type="Motorcycle" depart="965" departLane="best" departSpeed="max" color="38,226,112" from="5_0" to="9_1"/>
	<trip id="Car59" type="Car" depart="980" departLane="best" departSpeed="max" color="98,215,133" from="6_0" to="7_1"/>
	<trip id="Motorcycle49" type="Motorcycle" depart="1029" departLane="best" departSpeed="max" color="74,64,187" from="5_0" to="9_1"/>
	<trip id="Car53" type="Car" depart="1031" departLane="best" departSpeed="max" color="2,74,159" from="8_0" to="7_1"/>
	<trip id="Car58" type="Car" depart="1094" departLane="best" departSpeed="max" color="168,231,78" from="1_0" to="2_1"/>
	<trip id="Car57" type="Car" depart="1108" departLane="best" departSpeed="max" color="122,93,227" from="5_0" to="9_1"/>
	<trip id="Car55" type="Car" depart="1122" departLane="best" departSpeed="max" color="28,120,239" from="1_0" to="7_1"/>
	<trip id="Car52" type="Car" depart="1123" departLane="best" departSpeed="max" color="148,189,251" from="1_0" to="7_1"/>
	<trip id="Car54" type="Car" depart="1151" departLane="best" departSpeed="max" color="221,132,184" from="1_0" to="7_1"/>
	<trip id="Car56" type="Car" depart="1164" departLane="best" departSpeed="max" color="34,165,101" from="5_0" to="3_1"/>
	<trip id="Car71" type="Car" depart="1200" departLane="best" departSpeed="max" color="31,143,121" from="8_0" to="7_1"/>
	<trip id="Motorcycle63" type="Motorcycle" depart="1223" departLane="best" departSpeed="max" color="247,96,49" from="9_0" to="3_1"/>
	<trip id="Car72" type="Car" depart="1229" departLane="best" departSpeed="max" color="250,44,58" from="1_0" to="7_1"/>
	<trip id="Car84" type="Car" depart="1233" departLane="best" departSpeed="max" color="235,11,181" from="2_0" to="3_1"/>
	<trip id="Car69" type="Car" depart="1244" departLane="best" departSpeed="max" color="157,37,63" from="1_0" to="7_1"/>
	<trip id="Truck87" type="Truck" depart="1256" departLane="best" departSpeed="max" color="221,90,182" from="1_0" to="8_1"/>
	<trip id="Car75" type="Car" depart="1260" departLane="best" departSpeed="max" color="124,76,141" from="8_0" to="3_1"/>
	<trip id="Car85" type="Car" depart="1281" departLane="best" departSpeed="max" color="125,3,178" from="1_0" to="2_1"/>
	<trip id="Car76" type="Car" depart="1288" departLane="best" departSpeed="max" color="84,44,34" from="5_0" to="9_1"/>
	<trip id="Motorcycle60" type="Motorcycle" depart="1314" departLane="best" departSpeed="max" color="110,130,255" from="8_0" to="7_1"/>
	<trip id="Car77" type="Car" depart="1332" departLane="best" departSpeed="max" color="45,252,59" from="5_0" to="3_1"/>
	<trip id="Car79" type="Car" depart="1334" departLane="best" departSpeed="max" color="172,4,103" from="5_0" to="9_1"/>
	<trip id="Motorcycle65" type="Motorcycle" depart="1343" departLane="best" departSpeed="max" color="155,79,144" from="2_0" to="3_1"/>
	<trip id="Car73" type="Car" depart="1346" departLane="best" departSpeed="max" color="102,192,169" from="8_0" to="7_1"/>
	<trip id="Car80" type="Car" depart="1353" departLane="best" departSpeed="max" color="223,55,157" from="1_0" to="3_1"/>
	<trip id="Car81" type="Car" depart="1357" departLane="best" departSpeed="max" color="22,95,243" from="2_0" to="3_1"/>
	<trip id="Car74" type="Car" depart="1361" departLane="best" departSpeed="max" color="45,203,71" from="8_0" to="7_1"/>
	<trip id="Motorcycle66" type="Motorcycle" depart="1370" departLane="best" departSpeed="max" color="136,149,213" from="1_0" to="2_1"/>
	<trip id="Motorcycle61" type="Motorcycle" depart="1398" departLane="best" departSpeed="max" color="127,56,140" from="8_0" to="7_1"/>
	<trip id="Motorcycle67" type="Motorcycle" depart="1416" departLane="best" departSpeed="max" color="225,131,249" from="4_0" to="4_1"/>
	<trip id="Motorcycle62" type="Motorcycle" depart="1421" departLane="best" departSpeed="max" color="67,228,214" from="8_0" to="7_1"/>
	<trip id="Car82" type="Car" depart="1428" departLane="best" departSpeed="max" color="167,182,190" from="2_0" to="3_1"/>
	<trip id="Car70" type="Car" depart="1428" departLane="best" departSpeed="max" color="4,231,186" from="8_0" to="7_1"/>
	<trip id="Car68" type="Car" depart="1428" departLane="best" departSpeed="max" color="140,186,186" from="1_0" to="7_1"/>
	<trip id="Motorcycle64" type="Motorcycle" depart="1453" departLane="best" departSpeed="max" color="108,4,111" from="6_0" to="2_1"/>
	<trip id="Car86" type="Car" depart="1466" departLane="best" departSpeed="max" color="218,190,219" from="6_0" to="7_1"/>
	<trip id="Car83" type="Car" depart="1486" departLane="best" departSpeed="max" color="143,73,24" from="2_0" to="3_1"/>
	<trip id="Car78" type="Car" depart="1495" departLane="best" departSpeed="max" color="143,19,109" from="5_0" to="9_1"/>
	<trip id="Van105" type="Van" depart="1508" departLane="best" departSpeed="max" color="237,214,19" from="1_0" to="8_1"/>
	<trip id="Motorcycle94" type="Motorcycle" depart="1518" departLane="best" departSpeed="max" color="172,211,69" from="6_0" to="7_1"/>
	<trip id="Motorcycle92" type="Motorcycle" depart="1523" departLane="best" departSpeed="max" color="100,7,204" from="5_0" to="3_1"/>
	<trip id="Motorcycle90" type="Motorcycle" depart="1532" departLane="best" departSpeed="max" color="26,176,234" from="5_0" to="9_1"/>
	<trip id="Motorcycle89" type="Motorcycle" depart="1541" departLane="best" departSpeed="max" color="211,52,16" from="1_0" to="7_1"/>
	<trip id="Car100" type="Car" depart="1577" departLane="best" departSpeed="max" color="18,16,235" from="1_0" to="3_1"/>
	<trip id="Car103" type="Car" depart="1634" departLane="best" departSpeed="max" color="232,50,57" from="6_0" to="6_1"/>
	<trip id="Motorcycle93" type="Motorcycle" depart="1670" departLane="best" departSpeed="max" color="164,8,118" from="5_0" to="9_1"/>
	<trip id="Car98" type="Car" depart="1677" departLane="best" departSpeed="max" color="33,216,239" from="1_0" to="7_1"/>
	<trip id="Car96" type="Car" depart="1681" departLane="best" departSpeed="max" color="223,36,105" from="1_0" to="7_1"/>
	<trip id="Car101" type="Car" depart="1688" departLane="best" departSpeed="max" color="30,218,152" from="1_0" to="3_1"/>
	<trip id="Car104" type="Car" depart="1705" departLane="best" departSpeed="max" color="129,175,60" from="4_0" to="4_1"/>
	<trip id="Motorcycle91" type="Motorcycle" depart="1713" departLane="best" departSpeed="max" color="28,20,138" from="5_0" to="9_1"/>
	<trip id="Car102" type="Car" depart="1718" departLane="best" departSpeed="max" color="22,7,237" from="2_0" to="3_1"/>
	<trip id="Motorcycle95" type="Motorcycle" depart="1737" departLane="best" departSpeed="max" color="149,183,200" from="5_0" to="4_1"/>
	<trip id="Car97" type="Car" depart="1749" departLane="best" departSpeed="max" color="24,181,99" from="1_0" to="7_1"/>
	<trip id="Motorcycle88" type="Motorcycle" depart="1774" departLane="best" departSpeed="max" color="49,11,62" from="1_0" to="4_1"/>
	<trip id="Car99" type="Car" depart="1795" departLane="best" departSpeed="max" color="111,15,30" from="1_0" to="4_1"/>
	<trip id="Motorcycle111" type="Motorcycle" depart="1810" departLane="best" departSpeed="max" color="252,79,9" from="4_0" to="4_1"/>
	<trip id="Van124" type="Van" depart="1819" departLane="best" departSpeed="max" color="211,63,95" from="1_0" to="8_1"/>
	<trip id="Truck127" type="Truck" depart="1842" departLane="best" departSpeed="max" color="93,39,209" from="2_0" to="3_1"/>
	<trip id="Car116" type="Car" depart="1850" departLane="best" departSpeed="max" color="45,222,145" from="2_0" to="7_1"/>
	<trip id="Car118" type="Car" depart="1875" departLane="best" departSpeed="max" color="177,64,11" from="5_0" to="9_1"/>
	<trip id="Van125" type="Van" depart="1886" departLane="best" departSpeed="max" color="32,126,20" from="9_0" to="3_1"/>
	<trip id="Motorcycle108" type="Motorcycle" depart="1895" departLane="best" departSpeed="max" color="190,91,112" from="5_0" to="2_1"/>
	<trip id="Motorcycle112" type="Motorcycle" depart="1899" departLane="best" departSpeed="max" color="204,204,138" from="4_0" to="4_1"/>
	<trip id="Car114" type="Car" depart="1913" departLane="best" departSpeed="max" color="46,182,174" from="8_0" to="7_1"/>
	<trip id="Truck128" type="Truck" depart="1918" departLane="best" departSpeed="max" color="216,71,21" from="2_0" to="3_1"/>
	<trip id="Motorcycle113" type="Motorcycle" depart="1919" departLane="best" departSpeed="max" color="72,171,248" from="5_0" to="6_1"/>
	<trip id="Motorcycle109" type="Motorcycle" depart="1922" departLane="best" departSpeed="max" color="209,175,153" from="6_0" to="9_1"/>
	<trip id="Van122" type="Van" depart="1923" departLane="best" departSpeed="max" color="122,241,156" from="1_0" to="8_1"/>
	<trip id="Car117" type="Car" depart="1946" departLane="best" departSpeed="max" color="168,45,238" from="1_0" to="7_1"/>
	<trip id="Van126" type="Van" depart="1970" departLane="best" departSpeed="max" color="112,64,198" from="6_0" to="7_1"/>
	<trip id="Car115" type="Car" depart="1999" departLane="best" departSpeed="max" color="113,43,96" from="8_0" to="4_1"/>
	<trip id="Motorcycle107" type="Motorcycle" depart="2020" departLane="best" departSpeed="max" color="249,218,191" from="6_0" to="9_1"/>
	<trip id="Motorcycle110" type="Motorcycle" depart="2026" departLane="best" departSpeed="max" color="206,225,104" from="2_0" to="3_1"/>
	<trip id="Car120" type="Car" depart="2065" departLane="best" departSpeed="max" color="11,164,156" from="1_0" to="2_1"/>
	<trip id="Van121" type="Van" depart="2073" departLane="best" departSpeed="max" color="70,110,56" from="1_0" to="8_1"/>
	<trip id="Car119" type="Car" depart="2079" departLane="best" departSpeed="max" color="180,89,64" from="1_0" to="2_1"/>
	<trip id="Van123" type="Van" depart="2086" departLane="best" departSpeed="max" color="183,251,203" from="1_0" to="8_1"/>
	<trip id="Motorcycle106" type="Motorcycle" depart="2096" departLane="best" departSpeed="max" color="203,241,7" from="8_0" to="7_1"/>
	<trip id="Motorcycle133" type="Motorcycle" depart="2104" departLane="best" departSpeed="max" color="120,20,64" from="9_0" to="2_1"/>
	<trip id="Motorcycle131" type="Motorcycle" depart="2119" departLane="best" departSpeed="max" color="248,158,184" from="1_0" to="7_1"/>
	<trip id="Motorcycle139" type="Motorcycle" depart="2127" departLane="best" departSpeed="max" color="151,134,160" from="4_0" to="4_1"/>
	<trip id="Car144" type="Car" depart="2132" departLane="best" departSpeed="max" color="83,183,105" from="8_0" to="7_1"/>
	<trip id="Motorcycle132" type="Motorcycle" depart="2134" departLane="best" departSpeed="max" color="130,231,161" from="9_0" to="3_1"/>
	<trip id="Motorcycle137" type="Motorcycle" depart="2182" departLane="best" departSpeed="max" color="66,39,43" from="2_0" to="3_1"/>
	<trip id="Motorcycle136" type="Motorcycle" depart="2189" departLane="best" departSpeed="max" color="176,172,148" from="9_0" to="3_1"/>
	<trip id="Car149" type="Car" depart="2200" departLane="best" departSpeed="max" color="47,92,202" from="5_0" to="3_1"/>
	<trip id="Car150" type="Car" depart="2210" departLane="best" departSpeed="max" color="119,201,248" from="2_0" to="3_1"/>
	<trip id="Car152" type="Car" depart="2243" departLane="best" departSpeed="max" color="130,3,113" from="6_0" to="7_1"/>
	<trip id="Motorcycle135" type="Motorcycle" depart="2246" departLane="best" departSpeed="max" color="242,128,7" from="9_0" to="2_1"/>
	<trip id="Motorcycle129" type="Motorcycle" depart="2254" departLane="best" departSpeed="max" color="88,22,135" from="1_0" to="4_1"/>
	<trip id="Car151" type="Car" depart="2270" departLane="best" departSpeed="max" color="83,119,145" from="6_0" to="7_1"/>
	<trip id="Van155" type="Van" depart="2276" departLane="best" departSpeed="max" color="183,116,219" from="1_0" to="8_1"/>
	<trip id="Car145" type="Car" depart="2283" departLane="best" departSpeed="max" color="219,24,151" from="8_0" to="3_1"/>
	<trip id="Motorcycle138" type="Motorcycle" depart="2289" departLane="best" departSpeed="max" color="30,147,253" from="6_0" to="6_1"/>
	<trip id="Motorcycle140" type="Motorcycle" depart="2294" departLane="best" departSpeed="max" color="138,146,72" from="4_0" to="4_1"/>
	<trip id="Car146" type="Car" depart="2297" departLane="best" departSpeed="max" color="142,57,216" from="5_0" to="2_1"/>
	<trip id="Van157" type="Van" depart="2305" departLane="best" departSpeed="max" color="131,138,11" from="5_0" to="3_1"/>
	<trip id="Truck158" type="Truck" depart="2312" departLane="best" departSpeed="max" color="162,123,229" from="8_0" to="7_1"/>
	<trip id="Car147" type="Car" depart="2314" departLane="best" departSpeed="max" color="207,238,115" from="5_0" to="9_1"/>
	<trip id="Car148" type="Car" depart="2314" departLane="best" departSpeed="max" color="81,92,151" from="5_0" to="3_1"/>
	<trip id="Car142" type="Car" depart="2317" departLane="best" departSpeed="max" color="84,219,245" from="1_0" to="7_1"/>
	<trip id="Van156" type="Van" depart="2321" departLane="best" departSpeed="max" color="213,11,109" from="1_0" to="7_1"/>
	<trip id="Van154" type="Van" depart="2324" departLane="best" departSpeed="max" color="177,38,110" from="1_0" to="8_1"/>
	<trip id="Car141" type="Car" depart="2331" departLane="best" departSpeed="max" color="24,38,204" from="1_0" to="7_1"/>
	<trip id="Motorcycle134" type="Motorcycle" depart="2335" departLane="best" departSpeed="max" color="119,105,166" from="9_0" to="3_1"/>
	<trip id="Car143" type="Car" depart="2340" departLane="best" departSpeed="max" color="199,252,9" from="2_0" to="7_1"/>
	<trip id="Car153" type="Car" depart="2345" departLane="best" departSpeed="max" color="70,184,216" from="5_0" to="4_1"/>
	<trip id="Motorcycle130" type="Motorcycle" depart="2351" departLane="best" departSpeed="max" color="55,12,58" from="2_0" to="7_1"/>
	<trip id="Truck159" type="Truck" depart="2399" departLane="best" departSpeed="max" color="182,72,29" from="8_0" to="7_1"/>
	<trip id="Van184" type="Van" depart="2417" departLane="best" departSpeed="max" color="138,185,223" from="8_0" to="7_1"/>
	<trip id="Car173" type="Car" depart="2453" departLane="best" departSpeed="max" color="246,117,102" from="1_0" to="7_1"/>
	<trip id="Car179" type="Car" depart="2455" departLane="best" departSpeed="max" color="254,104,187" from="2_0" to="3_1"/>
	<trip id="Motorcycle168" type="Motorcycle" depart="2482" departLane="best" departSpeed="max" color="122,254,208" from="2_0" to="3_1"/>
	<trip id="Motorcycle160" type="Motorcycle" depart="2482" departLane="best" departSpeed="max" color="76,117,110" from="8_0" to="7_1"/>
	<trip id="Car175" type="Car" depart="2486" departLane="best" departSpeed="max" color="104,179,22" from="1_0" to="7_1"/>
	<trip id="Car183" type="Car" depart="2513" departLane="best" departSpeed="max" color="39,99,221" from="5_0" to="4_1"/>
	<trip id="Motorcycle167" type="Motorcycle" depart="2527" departLane="best" departSpeed="max" color="224,250,81" from="9_0" to="3_1"/>
	<trip id="Motorcycle161" type="Motorcycle" depart="2533" departLane="best" departSpeed="max" color="169,230,196" from="8_0" to="7_1"/>
	<trip id="Car181" type="Car" depart="2534" departLane="best" departSpeed="max" color="54,29,77" from="2_0" to="3_1"/>
	<trip id="Motorcycle162" type="Motorcycle" depart="2534" departLane="best" departSpeed="max" color="97,51,120" from="8_0" to="7_1"/>
	<trip id="Motorcycle164" type="Motorcycle" depart="2552" departLane="best" departSpeed="max" color="151,4,60" from="8_0" to="4_1"/>
	<trip id="Motorcycle169" type="Motorcycle" depart="2554" departLane="best" departSpeed="max" color="164,10,103" from="6_0" to="7_1"/>
	<trip id="Car174" type="Car" depart="2564" departLane="best" departSpeed="max" color="50,68,216" from="1_0" to="8_1"/>
	<trip id="Car170" type="Car" depart="2579" departLane="best" departSpeed="max" color="38,177,87" from="9_0" to="4_1"/>
	<trip id="Car178" type="Car" depart="2581" departLane="best" departSpeed="max" color="220,208,189" from="6_0" to="9_1"/>
	<trip id="Car176" type="Car" depart="2603" departLane="best" departSpeed="max" color="114,176,131" from="6_0" to="3_1"/>
	<trip id="Car171" type="Car" depart="2612" departLane="best" departSpeed="max" color="32,231,97" from="9_0" to="6_1"/>
	<trip id="Car177" type="Car" depart="2651" departLane="best" departSpeed="max" color="240,70,192" from="5_0" to="2_1"/>
	<trip id="Motorcycle165" type="Motorcycle" depart="2651" departLane="best" departSpeed="max" color="245,210,157" from="8_0" to="7_1"/>
	<trip id="Car172" type="Car" depart="2653" departLane="best" departSpeed="max" color="124,18,183" from="1_0" to="7_1"/>
	<trip id="Motorcycle163" type="Motorcycle" depart="2658" departLane="best" departSpeed="max" color="16,155,86" from="8_0" to="7_1"/>
	<trip id="Car180" type="Car" depart="2672" departLane="best" departSpeed="max" color="45,164,180" from="2_0" to="3_1"/>
	<trip id="Car182" type="Car" depart="2672" departLane="best" departSpeed="max" color="129,76,217" from="1_0" to="2_1"/>
	<trip id="Van185" type="Van" depart="2691" departLane="best" departSpeed="max" color="55,191,17" from="8_0" to="7_1"/>
	<trip id="Motorcycle166" type="Motorcycle" depart="2695" departLane="best" departSpeed="max" color="72,145,64" from="8_0" to="7_1"/>
	<trip id="Motorcycle190" type="Motorcycle" depart="2702" departLane="best" departSpeed="max" color="58,111,201" from="1_0" to="2_1"/>
	<trip id="Motorcycle186" type="Motorcycle" depart="2707" departLane="best" departSpeed="max" color="95,61,31" from="8_0" to="7_1"/>
	<trip id="Motorcycle193" type="Motorcycle" depart="2710" departLane="best" departSpeed="max" color="184,163,203" from="6_0" to="6_1"/>
	<trip id="Motorcycle187" type="Motorcycle" depart="2730" departLane="best" departSpeed="max" color="238,249,159" from="1_0" to="7_1"/>
	<trip id="Van207" type="Van" depart="2734" departLane="best" departSpeed="max" color="214,76,80" from="1_0" to="3_1"/>
	<trip id="Car205" type="Car" depart="2739" departLane="best" departSpeed="max" color="207,21,243" from="1_0" to="2_1"/>
	<trip id="Motorcycle191" type="Motorcycle" depart="2762" departLane="best" departSpeed="max" color="214,84,204" from="5_0" to="4_1"/>
	<trip id="Car196" type="Car" depart="2770" departLane="best" departSpeed="max" color="198,5,187" from="8_0" to="7_1"/>
	<trip id="Car202" type="Car" depart="2792" departLane="best" departSpeed="max" color="105,100,37" from="1_0" to="3_1"/>
	<trip id="Car198" type="Car" depart="2808" departLane="best" departSpeed="max" color="192,193,101" from="1_0" to="7_1"/>
	<trip id="Motorcycle188" type="Motorcycle" depart="2825" departLane="best" departSpeed="max" color="239,89,188" from="5_0" to="3_1"/>
	<trip id="Car203" type="Car" depart="2829" departLane="best" departSpeed="max" color="114,153,85" from="1_0" to="3_1"/>
	<trip id="Car200" type="Car" depart="2832" departLane="best" departSpeed="max" color="71,19,153" from="9_0" to="3_1"/>
	<trip id="Car195" type="Car" depart="2853" departLane="best" departSpeed="max" color="135,21,197" from="1_0" to="7_1"/>
	<trip id="Motorcycle189" type="Motorcycle" depart="2868" departLane="best" departSpeed="max" color="142,133,127" from="4_0" to="9_1"/>
	<trip id="Car201" type="Car" depart="2883" departLane="best" departSpeed="max" color="37,20,144" from="9_0" to="3_1"/>
	<trip id="Car197" type="Car" depart="2897" departLane="best" departSpeed="max" color="9,32,203" from="1_0" to="7_1"/>
	<trip id="Car204" type="Car" depart="2922" departLane="best" departSpeed="max" color="102,77,11" from="1_0" to="2_1"/>
	<trip id="Van206" type="Van" depart="2946" departLane="best" departSpeed="max" color="63,100,47" from="8_0" to="7_1"/>
	<trip id="Motorcycle192" type="Motorcycle" depart="2952" departLane="best" departSpeed="max" color="98,14,138" from="6_0" to="6_1"/>
	<trip id="Car194" type="Car" depart="2993" departLane="best" departSpeed="max" color="123,233,252" from="8_0" to="7_1"/>
	<trip id="Car199" type="Car" depart="2994" departLane="best" departSpeed="max" color="102,10,128" from="5_0" to="3_1"/>
	<trip id="Car239" type="Car" depart="3021" departLane="best" departSpeed="max" color="245,228,107" from="5_0" to="3_1"/>
	<trip id="Car238" type="Car" depart="3026" departLane="best" departSpeed="max" color="105,65,75" from="5_0" to="3_1"/>
	<trip id="Motorcycle210" type="Motorcycle" depart="3035" departLane="best" departSpeed="max" color="181,7,61" from="8_0" to="7_1"/>
	<trip id="Motorcycle221" type="Motorcycle" depart="3047" departLane="best" departSpeed="max" color="229,248,113" from="6_0" to="7_1"/>
	<trip id="Motorcycle215" type="Motorcycle" depart="3065" departLane="best" departSpeed="max" color="85,73,32" from="6_0" to="3_1"/>
	<trip id="Car229" type="Car" depart="3090" departLane="best" departSpeed="max" color="190,84,14" from="1_0" to="7_1"/>
	<trip id="Motorcycle209" type="Motorcycle" depart="3094" departLane="best" departSpeed="max" color="239,250,119" from="8_0" to="7_1"/>
	<trip id="Car235" type="Car" depart="3095" departLane="best" departSpeed="max" color="117,234,28" from="5_0" to="3_1"/>
	<trip id="Car244" type="Car" depart="3100" departLane="best" departSpeed="max" color="105,170,199" from="5_0" to="6_1"/>
	<trip id="Car227" type="Car" depart="3100" departLane="best" departSpeed="max" color="187,132,25" from="1_0" to="7_1"/>
	<trip id="Car228" type="Car" depart="3110" departLane="best" departSpeed="max" color="246,80,54" from="1_0" to="7_1"/>
	<trip id="Motorcycle217" type="Motorcycle" depart="3121" departLane="best" departSpeed="max" color="171,150,49" from="1_0" to="3_1"/>
	<trip id="Motorcycle222" type="Motorcycle" depart="3128" departLane="best" departSpeed="max" color="70,246,250" from="5_0" to="4_1"/>
	<trip id="Van249" type="Van" depart="3130" departLane="best" departSpeed="max" color="70,228,219" from="1_0" to="2_1"/>
	<trip id="Motorcycle219" type="Motorcycle" depart="3137" departLane="best" departSpeed="max" color="54,191,107" from="2_0" to="3_1"/>
	<trip id="Van247" type="Van" depart="3143" departLane="best" departSpeed="max" color="128,201,245" from="5_0" to="3_1"/>
	<trip id="Car237" type="Car" depart="3144" departLane="best" departSpeed="max" color="198,189,113" from="6_0" to="3_1"/>
	<trip id="Car233" type="Car" depart="3144" departLane="best" departSpeed="max" color="242,95,128" from="5_0" to="3_1"/>
	<trip id="Car236" type="Car" depart="3146" departLane="best" departSpeed="max" color="111,241,162" from="5_0" to="2_1"/>
	<trip id="Motorcycle213" type="Motorcycle" depart="3150" departLane="best" departSpeed="max" color="136,169,96" from="9_0" to="3_1"/>
	<trip id="Car232" type="Car" depart="3157" departLane="best" departSpeed="max" color="227,112,104" from="5_0" to="3_1"/>
	<trip id="Car230" type="Car" depart="3165" departLane="best" departSpeed="max" color="98,186,164" from="1_0" to="7_1"/>
	<trip id="Car231" type="Car" depart="3172" departLane="best" departSpeed="max" color="144,119,5" from="1_0" to="7_1"/>
	<trip id="Car226" type="Car" depart="3172" departLane="best" departSpeed="max" color="239,35,110" from="1_0" to="7_1"/>
	<trip id="Motorcycle216" type="Motorcycle" depart="3173" departLane="best" departSpeed="max" color="190,130,138" from="9_0" to="3_1"/>
	<trip id="Motorcycle208" type="Motorcycle" depart="3175" departLane="best" departSpeed="max" color="227,13,111" from="8_0" to="7_1"/>
	<trip id="Motorcycle212" type="Motorcycle" depart="3176" departLane="best" departSpeed="max" color="130,228,69" from="8_0" to="7_1"/>
	<trip id="Car223" type="Car" depart="3185" departLane="best" departSpeed="max" color="222,74,254" from="1_0" to="7_1"/>
	<trip id="Van246" type="Van" depart="3189" departLane="best" departSpeed="max" color="3,135,67" from="5_0" to="9_1"/>